/*--------------------------------*- C++ -*----------------------------------*\
| =========                 |                                                 |
| \\      /  F ield         | OpenFOAM: The Open Source CFD Toolbox           |
|  \\    /   O peration     | Version:  2412                                  |
|   \\  /    A nd           | Website:  www.openfoam.com                      |
|    \\/     M anipulation  |                                                 |
\*---------------------------------------------------------------------------*/
FoamFile
{
    version     2.0;
    format      ascii;
    arch        "LSB;label=32;scalar=64";
    class       featureEdgeMesh;
    location    "constant/triSurface";
    object      cylinder.eMesh;
}
// * * * * * * * * * * * * * * * * * * * * * * * * * * * * * * * * * * * * * //


// points:

82
(
(3.19766 1 0.46947)
(3.2 1 0.5)
(3.2 1.0877e-32 0.5)
(3.19766 -6.77899e-18 0.46947)
(3.19068 -1.33991e-17 0.439656)
(3.19068 1 0.439656)
(3.17923 -1.97051e-17 0.411256)
(3.17923 1 0.411256)
(3.16359 1 0.384936)
(3.16359 -2.55493e-17 0.384936)
(3.1441 1 0.361313)
(3.1441 -3.07946e-17 0.361313)
(3.12124 1 0.340941)
(3.12124 -3.53181e-17 0.340941)
(3.09554 1 0.324297)
(3.09554 -3.90138e-17 0.324297)
(3.0676 1 0.311772)
(3.0676 -4.1795e-17 0.311772)
(3.03808 1 0.303658)
(3.03808 -4.35966e-17 0.303658)
(3.00766 1 0.300147)
(3.00766 -4.43763e-17 0.300147)
(2.97706 1 0.30132)
(2.97706 -4.41159e-17 0.30132)
(2.947 -4.28215e-17 0.307149)
(2.947 1 0.307149)
(2.91819 1 0.317499)
(2.91819 -4.05233e-17 0.317499)
(2.89129 1 0.332127)
(2.89129 -3.72753e-17 0.332127)
(2.86694 1 0.350689)
(2.86694 -3.31536e-17 0.350689)
(2.8457 1 0.372752)
(2.8457 -2.82548e-17 0.372752)
(2.82809 1 0.397796)
(2.82809 -2.26938e-17 0.397796)
(2.8145 -1.66008e-17 0.425237)
(2.8145 1 0.425237)
(2.80526 -1.01187e-17 0.454429)
(2.80526 1 0.454429)
(2.80059 -3.39947e-18 0.48469)
(2.80059 1 0.48469)
(2.80059 3.39947e-18 0.51531)
(2.80059 1 0.51531)
(2.80526 1.01187e-17 0.545571)
(2.80526 1 0.545571)
(2.8145 1.66008e-17 0.574763)
(2.82809 2.26938e-17 0.602204)
(2.8145 1 0.574763)
(2.82809 1 0.602204)
(2.8457 2.82548e-17 0.627249)
(2.8457 1 0.627249)
(2.86694 3.31536e-17 0.649311)
(2.89129 3.72753e-17 0.667873)
(2.86694 1 0.649311)
(2.89129 1 0.667873)
(2.91819 4.05233e-17 0.682501)
(2.91819 1 0.682501)
(2.947 1 0.692851)
(2.947 4.28215e-17 0.692851)
(2.97706 1 0.69868)
(2.97706 4.41159e-17 0.69868)
(3.00766 1 0.699853)
(3.00766 4.43763e-17 0.699853)
(3.03808 1 0.696342)
(3.03808 4.35966e-17 0.696342)
(3.0676 1 0.688228)
(3.0676 4.1795e-17 0.688228)
(3.09554 1 0.675703)
(3.09554 3.90138e-17 0.675703)
(3.12124 1 0.659059)
(3.12124 3.53181e-17 0.659059)
(3.1441 1 0.638686)
(3.1441 3.07946e-17 0.638686)
(3.16359 1 0.615064)
(3.16359 2.55493e-17 0.615064)
(3.17923 1 0.588744)
(3.17923 1.97051e-17 0.588744)
(3.19068 1 0.560344)
(3.19068 1.33991e-17 0.560344)
(3.19766 1 0.53053)
(3.19766 6.77899e-18 0.53053)
)


// edges:

82
(
(0 1)
(2 3)
(3 4)
(5 0)
(4 6)
(7 5)
(8 7)
(6 9)
(10 8)
(9 11)
(12 10)
(11 13)
(14 12)
(13 15)
(16 14)
(15 17)
(18 16)
(17 19)
(20 18)
(19 21)
(22 20)
(21 23)
(23 24)
(25 22)
(26 25)
(24 27)
(28 26)
(27 29)
(30 28)
(29 31)
(32 30)
(31 33)
(34 32)
(33 35)
(35 36)
(37 34)
(36 38)
(39 37)
(38 40)
(41 39)
(40 42)
(43 41)
(42 44)
(45 43)
(44 46)
(46 47)
(48 45)
(49 48)
(47 50)
(51 49)
(50 52)
(52 53)
(54 51)
(55 54)
(53 56)
(57 55)
(58 57)
(56 59)
(60 58)
(59 61)
(62 60)
(61 63)
(64 62)
(63 65)
(66 64)
(65 67)
(68 66)
(67 69)
(70 68)
(69 71)
(72 70)
(71 73)
(74 72)
(73 75)
(76 74)
(75 77)
(78 76)
(77 79)
(80 78)
(79 81)
(1 80)
(81 2)
)

// * * * * * * * * * * * * * * * * * * * * * * * * * * * * * * * * * * * * * //


// ************************************************************************* //
