/*--------------------------------*- C++ -*----------------------------------*\
| =========                 |                                                 |
| \\      /  F ield         | OpenFOAM: The Open Source CFD Toolbox           |
|  \\    /   O peration     | Version:  2412                                  |
|   \\  /    A nd           | Website:  www.openfoam.com                      |
|    \\/     M anipulation  |                                                 |
\*---------------------------------------------------------------------------*/
FoamFile
{
    version     2.0;
    format      ascii;
    arch        "LSB;label=32;scalar=64";
    class       extendedFeatureEdgeMesh;
    location    "constant/extendedFeatureEdgeMesh";
    object      cylinder.extendedFeatureEdgeMesh;
}
// * * * * * * * * * * * * * * * * * * * * * * * * * * * * * * * * * * * * * //

// points

82
(
(3.19766 1 0.46947)
(3.2 1 0.5)
(3.2 1.0877e-32 0.5)
(3.19766 -6.77899e-18 0.46947)
(3.19068 -1.33991e-17 0.439656)
(3.19068 1 0.439656)
(3.17923 -1.97051e-17 0.411256)
(3.17923 1 0.411256)
(3.16359 1 0.384936)
(3.16359 -2.55493e-17 0.384936)
(3.1441 1 0.361313)
(3.1441 -3.07946e-17 0.361313)
(3.12124 1 0.340941)
(3.12124 -3.53181e-17 0.340941)
(3.09554 1 0.324297)
(3.09554 -3.90138e-17 0.324297)
(3.0676 1 0.311772)
(3.0676 -4.1795e-17 0.311772)
(3.03808 1 0.303658)
(3.03808 -4.35966e-17 0.303658)
(3.00766 1 0.300147)
(3.00766 -4.43763e-17 0.300147)
(2.97706 1 0.30132)
(2.97706 -4.41159e-17 0.30132)
(2.947 -4.28215e-17 0.307149)
(2.947 1 0.307149)
(2.91819 1 0.317499)
(2.91819 -4.05233e-17 0.317499)
(2.89129 1 0.332127)
(2.89129 -3.72753e-17 0.332127)
(2.86694 1 0.350689)
(2.86694 -3.31536e-17 0.350689)
(2.8457 1 0.372752)
(2.8457 -2.82548e-17 0.372752)
(2.82809 1 0.397796)
(2.82809 -2.26938e-17 0.397796)
(2.8145 -1.66008e-17 0.425237)
(2.8145 1 0.425237)
(2.80526 -1.01187e-17 0.454429)
(2.80526 1 0.454429)
(2.80059 -3.39947e-18 0.48469)
(2.80059 1 0.48469)
(2.80059 3.39947e-18 0.51531)
(2.80059 1 0.51531)
(2.80526 1.01187e-17 0.545571)
(2.80526 1 0.545571)
(2.8145 1.66008e-17 0.574763)
(2.82809 2.26938e-17 0.602204)
(2.8145 1 0.574763)
(2.82809 1 0.602204)
(2.8457 2.82548e-17 0.627249)
(2.8457 1 0.627249)
(2.86694 3.31536e-17 0.649311)
(2.89129 3.72753e-17 0.667873)
(2.86694 1 0.649311)
(2.89129 1 0.667873)
(2.91819 4.05233e-17 0.682501)
(2.91819 1 0.682501)
(2.947 1 0.692851)
(2.947 4.28215e-17 0.692851)
(2.97706 1 0.69868)
(2.97706 4.41159e-17 0.69868)
(3.00766 1 0.699853)
(3.00766 4.43763e-17 0.699853)
(3.03808 1 0.696342)
(3.03808 4.35966e-17 0.696342)
(3.0676 1 0.688228)
(3.0676 4.1795e-17 0.688228)
(3.09554 1 0.675703)
(3.09554 3.90138e-17 0.675703)
(3.12124 1 0.659059)
(3.12124 3.53181e-17 0.659059)
(3.1441 1 0.638686)
(3.1441 3.07946e-17 0.638686)
(3.16359 1 0.615064)
(3.16359 2.55493e-17 0.615064)
(3.17923 1 0.588744)
(3.17923 1.97051e-17 0.588744)
(3.19068 1 0.560344)
(3.19068 1.33991e-17 0.560344)
(3.19766 1 0.53053)
(3.19766 6.77899e-18 0.53053)
)

// edges

82
(
(0 1)
(2 3)
(3 4)
(5 0)
(4 6)
(7 5)
(8 7)
(6 9)
(10 8)
(9 11)
(12 10)
(11 13)
(14 12)
(13 15)
(16 14)
(15 17)
(18 16)
(17 19)
(20 18)
(19 21)
(22 20)
(21 23)
(23 24)
(25 22)
(26 25)
(24 27)
(28 26)
(27 29)
(30 28)
(29 31)
(32 30)
(31 33)
(34 32)
(33 35)
(35 36)
(37 34)
(36 38)
(39 37)
(38 40)
(41 39)
(40 42)
(43 41)
(42 44)
(45 43)
(44 46)
(46 47)
(48 45)
(49 48)
(47 50)
(51 49)
(50 52)
(52 53)
(54 51)
(55 54)
(53 56)
(57 55)
(58 57)
(56 59)
(60 58)
(59 61)
(62 60)
(61 63)
(64 62)
(63 65)
(66 64)
(65 67)
(68 66)
(67 69)
(70 68)
(69 71)
(72 70)
(71 73)
(74 72)
(73 75)
(76 74)
(75 77)
(78 76)
(77 79)
(80 78)
(79 81)
(1 80)
(81 2)
)

// concaveStart mixedStart nonFeatureStart
0 0 0
// internalStart flatStart openStart multipleStart
82 82 82 82
// normals

160
(
(0.997065 0 -0.0765562)
(0 1 0)
(0.997065 0 -0.0765562)
(6.64362e-22 -1 2.22044e-16)
(0.973695 0 -0.227855)
(-1.67821e-21 -1 2.22045e-16)
(0.973695 0 -0.227855)
(0 1 0)
(0.927505 0 -0.373812)
(2.79506e-21 -1 2.22043e-16)
(0.927505 0 -0.373812)
(0 1 0)
(0.85957 0 -0.511018)
(0 1 0)
(0.85957 0 -0.511018)
(-3.94737e-21 -1 2.22048e-16)
(0.771484 0 -0.636248)
(0.771484 0 -0.636248)
(0.665328 0 -0.746551)
(0 1 0)
(0.665328 0 -0.746551)
(-1.49917e-21 -1 2.22046e-16)
(0.543573 0 -0.839362)
(0.543573 0 -0.839362)
(0.409062 0 -0.912507)
(0 1 0)
(0.409062 0 -0.912507)
(1.63633e-21 -1 2.22042e-16)
(0.264983 0 -0.964253)
(0 1 0)
(0.264983 0 -0.964253)
(3.18831e-23 -1 2.22044e-16)
(0.114684 0 -0.993402)
(0 1 0)
(0.114684 0 -0.993402)
(2.84605e-22 -1 2.22044e-16)
(-0.0383013 0 -0.999266)
(0 1 0)
(-0.0383013 -0 -0.999266)
(-9.77073e-23 -1 2.22045e-16)
(-0.190395 -0 -0.981708)
(0 -1 2.22045e-16)
(-0.190395 -0 -0.981708)
(0 1 0)
(-0.338011 0 -0.941142)
(0 1 0)
(-0.338011 -0 -0.941142)
(9.95386e-23 -1 2.22044e-16)
(-0.477715 0 -0.878515)
(0 1 0)
(-0.477715 -0 -0.878515)
(-1.40088e-22 -1 2.22045e-16)
(-0.606239 0 -0.795283)
(0 1 0)
(-0.606239 -0 -0.795283)
(7.31296e-23 -1 2.22044e-16)
(-0.720514 0 -0.69344)
(0 1 0)
(-0.720514 -0 -0.69344)
(1.23623e-23 -1 2.22045e-16)
(-0.817931 0 -0.575317)
(0 1 0)
(-0.817931 -0 -0.575317)
(-3.22125e-23 -1 2.22044e-16)
(-0.896175 -0 -0.4437)
(6.28426e-23 -1 2.22045e-16)
(-0.896175 0 -0.4437)
(0 1 0)
(-0.953391 -0 -0.301739)
(2.24043e-23 -1 2.22045e-16)
(-0.953391 -0 -0.301739)
(0 1 0)
(-0.988281 -0 -0.152645)
(-6.5504e-23 -1 2.22044e-16)
(-0.988281 0 -0.152645)
(0 1 0)
(-1 -0 0)
(8.47028e-23 -1 2.22045e-16)
(-1 0 -0)
(0 1 0)
(-0.988281 0 0.152646)
(1.83169e-22 -1 2.22045e-16)
(-0.988281 0 0.152646)
(0 1 0)
(-0.953391 0 0.301738)
(-2.04868e-22 -1 2.22044e-16)
(-0.896175 0 0.4437)
(1.25858e-22 -1 2.22045e-16)
(-0.953391 0 0.301738)
(0 1 0)
(-0.896175 0 0.4437)
(0 1 0)
(-0.817931 0 0.575317)
(-2.6904e-22 -1 2.22044e-16)
(-0.817931 0 0.575317)
(0 1 0)
(-0.720514 0 0.693441)
(4.49585e-22 -1 2.22045e-16)
(-0.606238 0 0.795283)
(-3.28663e-22 -1 2.22044e-16)
(-0.720514 0 0.693441)
(0 1 0)
(-0.606238 0 0.795283)
(0 1 0)
(-0.477716 0 0.878514)
(8.89707e-23 -1 2.22045e-16)
(-0.477716 0 0.878514)
(0 1 0)
(-0.33801 0 0.941143)
(0 1 0)
(-0.33801 0 0.941143)
(0 -1 2.22045e-16)
(-0.190395 0 0.981708)
(0 1 0)
(-0.190395 0 0.981708)
(0 -1 2.22045e-16)
(-0.0383004 0 0.999266)
(0 1 0)
(-0.0383004 0 0.999266)
(3.18362e-22 -1 2.22045e-16)
(0.114687 0 0.993402)
(0 1 0)
(0.114687 0 0.993402)
(4.59899e-22 -1 2.22045e-16)
(0.26498 0 0.964254)
(0 1 0)
(0.26498 0 0.964254)
(-9.61106e-22 -1 2.22044e-16)
(0.409062 0 0.912507)
(0 1 0)
(0.409062 0 0.912507)
(-5.34255e-22 -1 2.22044e-16)
(0.543574 0 0.839361)
(0 1 0)
(0.543574 0 0.839361)
(8.20428e-22 -1 2.22045e-16)
(0.665328 0 0.746551)
(0 1 -0)
(0.665328 0 0.746551)
(1.66006e-22 -1 2.22045e-16)
(0.771483 0 0.636249)
(0 1 0)
(0.771483 0 0.636249)
(-3.10743e-22 -1 2.22045e-16)
(0.85957 0 0.511017)
(0 1 0)
(0.85957 0 0.511017)
(-1.87273e-22 -1 2.22045e-16)
(0.927505 0 0.373812)
(0 1 0)
(0.927505 0 0.373812)
(7.05337e-22 -1 2.22044e-16)
(0.973695 0 0.227855)
(0 1 0)
(0.973695 0 0.227855)
(-1.4525e-21 -1 2.22045e-16)
(0.997065 0 0.0765561)
(0 1 0)
(0.997065 0 0.0765561)
(9.03475e-22 -1 2.22044e-16)
)

// normal volume types

160
(
0
0
0
0
0
0
0
0
0
0
0
0
0
0
0
0
0
0
0
0
0
0
0
0
0
0
0
0
0
0
0
0
0
0
0
0
0
0
0
0
0
0
0
0
0
0
0
0
0
0
0
0
0
0
0
0
0
0
0
0
0
0
0
0
0
0
0
0
0
0
0
0
0
0
0
0
0
0
0
0
0
0
0
0
0
0
0
0
0
0
0
0
0
0
0
0
0
0
0
0
0
0
0
0
0
0
0
0
0
0
0
0
0
0
0
0
0
0
0
0
0
0
0
0
0
0
0
0
0
0
0
0
0
0
0
0
0
0
0
0
0
0
0
0
0
0
0
0
0
0
0
0
0
0
0
0
0
0
0
0
)

// normalDirections

82
(
2(1 -1)
2(1 -1)
2(1 -1)
2(1 -1)
2(1 -1)
2(1 -1)
2(1 -1)
2(1 -1)
2(1 -1)
2(1 -1)
2(1 -1)
2(1 -1)
2(1 -1)
2(1 -1)
2(1 -1)
2(1 -1)
2(1 -1)
2(1 -1)
2(1 -1)
2(1 -1)
2(1 -1)
2(1 -1)
2(1 -1)
2(1 -1)
2(1 -1)
2(1 -1)
2(1 -1)
2(1 -1)
2(1 -1)
2(1 -1)
2(1 -1)
2(1 -1)
2(1 -1)
2(1 -1)
2(1 -1)
2(1 -1)
2(1 -1)
2(1 -1)
2(1 -1)
2(1 -1)
2(1 -1)
2(1 -1)
2(1 -1)
2(1 -1)
2(1 -1)
2(1 -1)
2(1 -1)
2(1 -1)
2(1 -1)
2(1 -1)
2(1 -1)
2(1 -1)
2(1 -1)
2(1 -1)
2(1 -1)
2(1 -1)
2(1 -1)
2(1 -1)
2(1 -1)
2(1 -1)
2(1 -1)
2(1 -1)
2(1 -1)
2(1 -1)
2(1 -1)
2(1 -1)
2(1 -1)
2(1 -1)
2(1 -1)
2(1 -1)
2(1 -1)
2(1 -1)
2(1 -1)
2(1 -1)
2(1 -1)
2(1 -1)
2(1 -1)
2(1 -1)
2(1 -1)
2(1 -1)
2(1 -1)
2(1 -1)
)

// edgeNormals

82
(
2(0 1)
2(2 3)
2(4 5)
2(6 7)
2(8 9)
2(10 11)
2(12 13)
2(14 15)
2(16 13)
2(17 15)
2(18 19)
2(20 21)
2(22 19)
2(23 21)
2(24 25)
2(26 27)
2(28 29)
2(30 31)
2(32 33)
2(34 35)
2(36 37)
2(38 39)
2(40 41)
2(42 43)
2(44 45)
2(46 47)
2(48 49)
2(50 51)
2(52 53)
2(54 55)
2(56 57)
2(58 59)
2(60 61)
2(62 63)
2(64 65)
2(66 67)
2(68 69)
2(70 71)
2(72 73)
2(74 75)
2(76 77)
2(78 79)
2(80 81)
2(82 83)
2(84 85)
2(86 87)
2(88 89)
2(90 91)
2(92 93)
2(94 95)
2(96 97)
2(98 99)
2(100 101)
2(102 103)
2(104 105)
2(106 107)
2(108 109)
2(110 111)
2(112 113)
2(114 115)
2(116 117)
2(118 119)
2(120 121)
2(122 123)
2(124 125)
2(126 127)
2(128 129)
2(130 131)
2(132 133)
2(134 135)
2(136 137)
2(138 139)
2(140 141)
2(142 143)
2(144 145)
2(146 147)
2(148 149)
2(150 151)
2(152 153)
2(154 155)
2(156 157)
2(158 159)
)

// featurePointNormals
0()
// featurePointEdges
0()
// regionEdges
0()


// ************************************************************************* //
