/*--------------------------------*- C++ -*----------------------------------*\
| =========                 |                                                 |
| \\      /  F ield         | OpenFOAM: The Open Source CFD Toolbox           |
|  \\    /   O peration     | Version:  2412                                  |
|   \\  /    A nd           | Website:  www.openfoam.com                      |
|    \\/     M anipulation  |                                                 |
\*---------------------------------------------------------------------------*/
FoamFile
{
    version     2.0;
    format      ascii;
    arch        "LSB;label=32;scalar=64";
    class       polyBoundaryMesh;
    location    "constant/polyMesh";
    object      boundary;
}
// * * * * * * * * * * * * * * * * * * * * * * * * * * * * * * * * * * * * * //

6
(
    inlet
    {
        type            patch;
        nFaces          0;
        startFace       14756;
    }
    outlet
    {
        type            patch;
        nFaces          160;
        startFace       14756;
    }
    bottom
    {
        type            patch;
        nFaces          264;
        startFace       14916;
    }
    top
    {
        type            patch;
        nFaces          264;
        startFace       15180;
    }
    sideWalls
    {
        type            wall;
        inGroups        1(wall);
        nFaces          1320;
        startFace       15444;
    }
    procBoundary2to1
    {
        type            processor;
        inGroups        1(processor);
        nFaces          160;
        startFace       16764;
        matchTolerance  0.0001;
        transform       unknown;
        myProcNo        2;
        neighbProcNo    1;
    }
)

// ************************************************************************* //
