/*--------------------------------*- C++ -*----------------------------------*\
| =========                 |                                                 |
| \\      /  F ield         | OpenFOAM: The Open Source CFD Toolbox           |
|  \\    /   O peration     | Version:  2412                                  |
|   \\  /    A nd           | Website:  www.openfoam.com                      |
|    \\/     M anipulation  |                                                 |
\*---------------------------------------------------------------------------*/
FoamFile
{
    version     2.0;
    format      ascii;
    arch        "LSB;label=32;scalar=64";
    class       polyBoundaryMesh;
    location    "constant/polyMesh";
    object      boundary;
}
// * * * * * * * * * * * * * * * * * * * * * * * * * * * * * * * * * * * * * //

7
(
    inlet
    {
        type            patch;
        nFaces          0;
        startFace       14909;
    }
    outlet
    {
        type            patch;
        nFaces          0;
        startFace       14909;
    }
    bottom
    {
        type            patch;
        nFaces          272;
        startFace       14909;
    }
    top
    {
        type            patch;
        nFaces          264;
        startFace       15181;
    }
    sideWalls
    {
        type            wall;
        inGroups        1(wall);
        nFaces          1334;
        startFace       15445;
    }
    procBoundary1to0
    {
        type            processor;
        inGroups        1(processor);
        nFaces          168;
        startFace       16779;
        matchTolerance  0.0001;
        transform       unknown;
        myProcNo        1;
        neighbProcNo    0;
    }
    procBoundary1to2
    {
        type            processor;
        inGroups        1(processor);
        nFaces          160;
        startFace       16947;
        matchTolerance  0.0001;
        transform       unknown;
        myProcNo        1;
        neighbProcNo    2;
    }
)

// ************************************************************************* //
