/*--------------------------------*- C++ -*----------------------------------*\
| =========                 |                                                 |
| \\      /  F ield         | OpenFOAM: The Open Source CFD Toolbox           |
|  \\    /   O peration     | Version:  2412                                  |
|   \\  /    A nd           | Website:  www.openfoam.com                      |
|    \\/     M anipulation  |                                                 |
\*---------------------------------------------------------------------------*/
FoamFile
{
    version     2.0;
    format      ascii;
    arch        "LSB;label=32;scalar=64";
    class       polyBoundaryMesh;
    location    "0.02/polyMesh";
    object      boundary;
}
// * * * * * * * * * * * * * * * * * * * * * * * * * * * * * * * * * * * * * //

6
(
    inlet
    {
        type            patch;
        nFaces          160;
        startFace       73228;
    }
    outlet
    {
        type            patch;
        nFaces          160;
        startFace       73388;
    }
    bottom
    {
        type            patch;
        nFaces          800;
        startFace       73548;
    }
    top
    {
        type            patch;
        nFaces          800;
        startFace       74348;
    }
    sideWalls
    {
        type            wall;
        inGroups        1(wall);
        nFaces          4584;
        startFace       75148;
    }
    cylinder
    {
        type            wall;
        inGroups        1(wall);
        nFaces          2944;
        startFace       79732;
    }
)

// ************************************************************************* //
